[General]
network = SimpleDNSNetwork
cmdenv-express-mode = false
sim-time-limit = 20s
**.cli.dns_servers = moduleListByNedType("inet_dns_extension.applications.dns.DNSServerNode") # DNS server..
**.cli.hostname_file = "host_names.txt" # DNS server..
