[General]
network = Dynamic_mdns_network

sim-time-limit = 20h

cmdenv-interactive=true

**.configurator.dumpAddresses = true
**.configurator.dumpRoutes = true

**.resolver.static_configuration = false


[Config Batch10Resolvers]
Dynamic_mdns_network.p_num_resolvers = 10
Dynamic_mdns_network.p_num_private = ${i=0,2..10}
Dynamic_mdns_network.p_max_friends = ${j=0..$i - 1}
Dynamic_mdns_network.p_min_friends = ${k=0..$j - 1}
repeat = 5
seed-set = ${repetition}