[General]
network = Dynamic_mdns_network

sim-time-limit = 20h

cmdenv-interactive=true

**.configurator.dumpAddresses = true
**.configurator.dumpRoutes = true

**.resolver.static_configuration = false