[General]
network = Dynamic_mdns_network

sim-time-limit = 20h

cmdenv-interactive=true

**.configurator.assignDisjunctSubnetAddresses = false
**.configurator.addStaticRoutes = false
**.configurator.addSubnetRoutes = false
**.configurator.addDefaultRoutes = false
**.configurator.optimizeRoutes = false
**.configurator.dumpAddresses = true
**.configurator.dumpRoutes = true

**.resolver.static_configuration = false