[General]
network = Dynamic_mdns_network

sim-time-limit = 20h

cmdenv-interactive=true

**.configurator.dumpAddresses = true
**.configurator.dumpRoutes = true

**.resolver.static_configuration = false
**.mdns_host[*].querying = false

[Config Batch10Resolvers]
Dynamic_mdns_network.p_num_resolvers = 10
Dynamic_mdns_network.p_num_private = ${i=0..10 step 5}
Dynamic_mdns_network.p_max_friends = ${j=0,($i)-1}
Dynamic_mdns_network.p_private_service_ratio = ${k=10..100 step 30}
Dynamic_mdns_network.p_min_friends = 0

constraint = ($i == 0 && $j == 0) || ($i >= 2 && $j > 0)
repeat = 5
seed-set = ${repetition}

[Config Batch25Resolvers]
Dynamic_mdns_network.p_num_resolvers = 25
Dynamic_mdns_network.p_num_private = ${i=0..25 step 5}
Dynamic_mdns_network.p_max_friends = ${j=0..$i step 5}
Dynamic_mdns_network.p_private_service_ratio = ${k=10..100 step 30}
Dynamic_mdns_network.p_min_friends = 0

constraint = (($j) < ($i) && $i >= 1) || ($j == $i && $i == 0)
repeat = 5
seed-set = ${repetition}

[Config Batch50Resolvers]
Dynamic_mdns_network.p_num_resolvers = 50
Dynamic_mdns_network.p_num_private = ${i=0..50 step 5}
Dynamic_mdns_network.p_max_friends = ${j=0..$i step 5}
Dynamic_mdns_network.p_private_service_ratio = ${k=10..100 step 30}
Dynamic_mdns_network.p_min_friends = 0

constraint = (($j) < ($i) && $i >= 1) || ($j == $i && $i == 0)
repeat = 5
seed-set = ${repetition}