[General]
network = Dynamic_wireless_mdns_network

sim-time-limit = 600s

cmdenv-interactive=true

**.configurator.dumpAddresses = true
**.configurator.dumpRoutes = true

**.resolver.static_configuration = false
**.mdns_host[*].querying = false

**.mdns_host[*].mobilityType = "CircleMobility"
**.mdns_host[*].mobility.constraintAreaMinX = 0m
**.mdns_host[*].mobility.constraintAreaMinY = 0m
**.mdns_host[*].mobility.constraintAreaMaxX = 400m
**.mdns_host[*].mobility.constraintAreaMaxY = 400m
**.mdns_host[*].mobility.cx = 200m
**.mdns_host[*].mobility.cy = 200m
**.mdns_host[*].mobility.r = 100m
**.mdns_host[*].mobility.speed = 1mps
**.mdns_host[*].mobility.updateInterval = 100ms

[Config Batch10Resolvers]
Dynamic_wireless_mdns_network.p_num_resolvers = 10
Dynamic_wireless_mdns_network.p_num_private = ${i=0,3,7,10}
Dynamic_wireless_mdns_network.p_max_friends = ${j=0,($i)-1}
Dynamic_wireless_mdns_network.p_private_service_ratio = ${k=10..100 step 30}
Dynamic_wireless_mdns_network.p_min_friends = 0

constraint = ($i == 0 && $j == 0) || ($i >= 2 && $j > 0)
repeat = 5
seed-set = ${repetition}

[Config Batch25Resolvers]
Dynamic_wireless_mdns_network.p_num_resolvers = 25
Dynamic_wireless_mdns_network.p_num_private = ${i=0..25 step 5}
Dynamic_wireless_mdns_network.p_max_friends = ${j=0..$i step 5}
Dynamic_wireless_mdns_network.p_private_service_ratio = ${k=10..100 step 30}
Dynamic_wireless_mdns_network.p_min_friends = 0

constraint = (($j) < ($i) && $i >= 1) || ($j == $i && $i == 0)
repeat = 5
seed-set = ${repetition}

[Config Batch50Resolvers]
Dynamic_wireless_mdns_network.p_num_resolvers = 50
Dynamic_wireless_mdns_network.p_num_private = ${i=0..50 step 5}
Dynamic_wireless_mdns_network.p_max_friends = ${j=0..$i step 5}
Dynamic_wireless_mdns_network.p_private_service_ratio = ${k=10..100 step 30}
Dynamic_wireless_mdns_network.p_min_friends = 0

constraint = (($j) < ($i) && $i >= 1) || ($j == $i && $i == 0)
repeat = 5
seed-set = ${repetition}