[General]
network = Simple_mdns_privacy_example

sim-time-limit = 20h

**.configurator.assignDisjunctSubnetAddresses = false
**.configurator.addStaticRoutes = false
**.configurator.addSubnetRoutes = false
**.configurator.addDefaultRoutes = false
**.configurator.optimizeRoutes = false
**.configurator.dumpAddresses = true
**.configurator.dumpRoutes = true

**.resolver.usesDSNExtension = true
**.resolver.static_configuration = true

#**.numPcapRecorders = 1
#**.alice.pcapRecorder[0].pcapFile = "alice.pcap"