[General]
network = Simple_mdns_privacy_example

sim-time-limit = 20h

**.configurator.assignDisjunctSubnetAddresses = false
**.configurator.addStaticRoutes = false
**.configurator.addSubnetRoutes = false
**.configurator.addDefaultRoutes = false
**.configurator.optimizeRoutes = false
**.configurator.dumpAddresses = true
**.configurator.dumpRoutes = true

**.resolver.static_configuration = true